[board]
type=System
children=cache_hierarchy clk_domain dvfs_handler memory processor workload
auto_unlink_shared_backstore=false
cache_line_size=64
eventq_index=0
exit_on_work_items=true
init_param=0
m5ops_base=0
mem_mode=timing
mem_ranges=0:33554432
memories=board.memory.mem_ctrl.dram
mmap_using_noreserve=false
multi_thread=false
num_work_ids=16
readfile=
redirect_paths=
shadow_rom_ranges=
shared_backstore=
symbolfile=
thermal_components=
thermal_model=Null
work_begin_ckpt_count=0
work_begin_cpu_id_exit=-1
work_begin_exit_count=0
work_cpus_ckpt_count=0
work_end_ckpt_count=0
work_end_exit_count=0
work_item_id=-1
workload=board.workload
system_port=board.cache_hierarchy.membus.cpu_side_ports[5]

[board.cache_hierarchy]
type=SubSystem
children=membus
eventq_index=0
thermal_domain=Null

[board.cache_hierarchy.membus]
type=CoherentXBar
children=badaddr_responder power_state snoop_filter
clk_domain=board.clk_domain
eventq_index=0
forward_latency=4
frontend_latency=3
header_latency=1
max_outstanding_snoops=512
max_routing_table_size=2048
point_of_coherency=true
point_of_unification=true
power_model=
power_state=board.cache_hierarchy.membus.power_state
response_latency=2
snoop_filter=board.cache_hierarchy.membus.snoop_filter
snoop_response_latency=4
system=board
use_default_range=false
width=64
cpu_side_ports=board.processor.cores.core.icache_port board.processor.cores.core.dcache_port board.processor.cores.core.mmu.itb.walker.port board.processor.cores.core.mmu.dtb.walker.port board.processor.cores.core.interrupts.int_requestor board.system_port
default=board.cache_hierarchy.membus.badaddr_responder.pio
mem_side_ports=board.processor.cores.core.interrupts.pio board.processor.cores.core.interrupts.int_responder board.memory.mem_ctrl.port

[board.cache_hierarchy.membus.badaddr_responder]
type=IsaFake
children=power_state
clk_domain=board.clk_domain
eventq_index=0
fake_mem=false
pio_addr=0
pio_latency=100000
pio_size=8
power_model=
power_state=board.cache_hierarchy.membus.badaddr_responder.power_state
ret_bad_addr=true
ret_data16=65535
ret_data32=4294967295
ret_data64=18446744073709551615
ret_data8=255
system=board
update_data=false
warn_access=
pio=board.cache_hierarchy.membus.default

[board.cache_hierarchy.membus.badaddr_responder.power_state]
type=PowerState
clk_gate_bins=20
clk_gate_max=1000000000000
clk_gate_min=1000
default_state=UNDEFINED
eventq_index=0
leaders=
possible_states=

[board.cache_hierarchy.membus.power_state]
type=PowerState
clk_gate_bins=20
clk_gate_max=1000000000000
clk_gate_min=1000
default_state=UNDEFINED
eventq_index=0
leaders=
possible_states=

[board.cache_hierarchy.membus.snoop_filter]
type=SnoopFilter
eventq_index=0
lookup_latency=1
max_capacity=8388608
system=board

[board.clk_domain]
type=SrcClockDomain
children=voltage_domain
clock=333
domain_id=-1
eventq_index=0
init_perf_level=0
voltage_domain=board.clk_domain.voltage_domain

[board.clk_domain.voltage_domain]
type=VoltageDomain
eventq_index=0
voltage=1.0

[board.dvfs_handler]
type=DVFSHandler
domains=
enable=false
eventq_index=0
sys_clk_domain=board.clk_domain
transition_latency=100000000

[board.memory]
type=SubSystem
children=mem_ctrl
eventq_index=0
thermal_domain=Null

[board.memory.mem_ctrl]
type=MemCtrl
children=dram power_state
clk_domain=board.clk_domain
command_window=10000
disable_sanity_check=false
dram=board.memory.mem_ctrl.dram
eventq_index=0
mem_sched_policy=frfcfs
min_reads_per_switch=16
min_writes_per_switch=16
power_model=
power_state=board.memory.mem_ctrl.power_state
qos_policy=Null
qos_priorities=1
qos_priority_escalation=false
qos_q_policy=fifo
qos_requestors=               
qos_syncro_scheduler=false
qos_turnaround_policy=Null
static_backend_latency=10000
static_frontend_latency=10000
system=board
write_high_thresh_perc=85
write_low_thresh_perc=50
port=board.cache_hierarchy.membus.mem_side_ports[2]

[board.memory.mem_ctrl.dram]
type=DRAMInterface
children=power_state
IDD0=0.055
IDD02=0.0
IDD2N=0.032
IDD2N2=0.0
IDD2P0=0.0
IDD2P02=0.0
IDD2P1=0.032
IDD2P12=0.0
IDD3N=0.038
IDD3N2=0.0
IDD3P0=0.0
IDD3P02=0.0
IDD3P1=0.038
IDD3P12=0.0
IDD4R=0.157
IDD4R2=0.0
IDD4W=0.125
IDD4W2=0.0
IDD5=0.23500000000000001
IDD52=0.0
IDD6=0.02
IDD62=0.0
VDD=1.5
VDD2=0.0
activation_limit=4
addr_mapping=RoRaBaCoCh
bank_groups_per_rank=0
banks_per_rank=8
beats_per_clock=2
burst_length=8
clk_domain=board.clk_domain
conf_table_reported=true
data_clock_sync=false
device_bus_width=8
device_rowbuffer_size=1024
device_size=536870912
devices_per_rank=8
dll=true
enable_dram_powerdown=false
eventq_index=0
image_file=
in_addr_map=true
kvm_map=true
max_accesses_per_row=16
null=false
page_policy=open_adaptive
power_model=
power_state=board.memory.mem_ctrl.dram.power_state
range=0:33554432
ranks_per_channel=2
read_buffer_size=32
tAAD=1250
tBURST=5000
tBURST_MAX=5000
tBURST_MIN=5000
tCCD_L=0
tCCD_L_WR=0
tCK=1250
tCL=13750
tCS=2500
tCWL=13750
tPPD=0
tRAS=35000
tRCD=13750
tRCD_WR=13750
tREFI=7800000
tRFC=260000
tRP=13750
tRRD=6000
tRRD_L=0
tRTP=7500
tRTW=2500
tWR=15000
tWTR=7500
tWTR_L=7500
tXAW=30000
tXP=6000
tXPDLL=0
tXS=270000
tXSDLL=0
two_cycle_activate=false
write_buffer_size=64
writeable=true

[board.memory.mem_ctrl.dram.power_state]
type=PowerState
clk_gate_bins=20
clk_gate_max=1000000000000
clk_gate_min=1000
default_state=UNDEFINED
eventq_index=0
leaders=
possible_states=

[board.memory.mem_ctrl.power_state]
type=PowerState
clk_gate_bins=20
clk_gate_max=1000000000000
clk_gate_min=1000
default_state=UNDEFINED
eventq_index=0
leaders=
possible_states=

[board.processor]
type=SubSystem
children=cores
eventq_index=0
thermal_domain=Null

[board.processor.cores]
type=SubSystem
children=core
eventq_index=0
thermal_domain=Null

[board.processor.cores.core]
type=BaseTimingSimpleCPU
children=decoder interrupts isa mmu power_state tracer workload
branchPred=Null
checker=Null
clk_domain=board.clk_domain
cpu_id=0
decoder=board.processor.cores.core.decoder
do_checkpoint_insts=true
do_statistics_insts=true
eventq_index=0
function_trace=false
function_trace_start=0
interrupts=board.processor.cores.core.interrupts
isa=board.processor.cores.core.isa
max_insts_all_threads=0
max_insts_any_thread=0
mmu=board.processor.cores.core.mmu
numThreads=1
power_gating_on_idle=false
power_model=
power_state=board.processor.cores.core.power_state
progress_interval=0
pwr_gating_latency=300
simpoint_start_insts=
socket_id=0
switched_out=false
syscallRetryLatency=10000
system=board
tracer=board.processor.cores.core.tracer
workload=board.processor.cores.core.workload
dcache_port=board.cache_hierarchy.membus.cpu_side_ports[1]
icache_port=board.cache_hierarchy.membus.cpu_side_ports[0]

[board.processor.cores.core.decoder]
type=X86Decoder
eventq_index=0
isa=board.processor.cores.core.isa

[board.processor.cores.core.interrupts]
type=X86LocalApic
children=clk_domain
clk_domain=board.processor.cores.core.interrupts.clk_domain
eventq_index=0
int_latency=1000
pio_latency=100000
system=board
int_requestor=board.cache_hierarchy.membus.cpu_side_ports[4]
int_responder=board.cache_hierarchy.membus.mem_side_ports[1]
pio=board.cache_hierarchy.membus.mem_side_ports[0]

[board.processor.cores.core.interrupts.clk_domain]
type=DerivedClockDomain
clk_divider=16
clk_domain=board.clk_domain
eventq_index=0

[board.processor.cores.core.isa]
type=X86ISA
eventq_index=0
vendor_string=HygonGenuine

[board.processor.cores.core.mmu]
type=X86MMU
children=dtb itb
dtb=board.processor.cores.core.mmu.dtb
eventq_index=0
itb=board.processor.cores.core.mmu.itb

[board.processor.cores.core.mmu.dtb]
type=X86TLB
children=walker
entry_type=data
eventq_index=0
next_level=Null
size=64
system=board
walker=board.processor.cores.core.mmu.dtb.walker

[board.processor.cores.core.mmu.dtb.walker]
type=X86PagetableWalker
children=power_state
clk_domain=board.clk_domain
eventq_index=0
num_squash_per_cycle=4
power_model=
power_state=board.processor.cores.core.mmu.dtb.walker.power_state
system=board
port=board.cache_hierarchy.membus.cpu_side_ports[3]

[board.processor.cores.core.mmu.dtb.walker.power_state]
type=PowerState
clk_gate_bins=20
clk_gate_max=1000000000000
clk_gate_min=1000
default_state=UNDEFINED
eventq_index=0
leaders=
possible_states=

[board.processor.cores.core.mmu.itb]
type=X86TLB
children=walker
entry_type=instruction
eventq_index=0
next_level=Null
size=64
system=board
walker=board.processor.cores.core.mmu.itb.walker

[board.processor.cores.core.mmu.itb.walker]
type=X86PagetableWalker
children=power_state
clk_domain=board.clk_domain
eventq_index=0
num_squash_per_cycle=4
power_model=
power_state=board.processor.cores.core.mmu.itb.walker.power_state
system=board
port=board.cache_hierarchy.membus.cpu_side_ports[2]

[board.processor.cores.core.mmu.itb.walker.power_state]
type=PowerState
clk_gate_bins=20
clk_gate_max=1000000000000
clk_gate_min=1000
default_state=UNDEFINED
eventq_index=0
leaders=
possible_states=

[board.processor.cores.core.power_state]
type=PowerState
clk_gate_bins=20
clk_gate_max=1000000000000
clk_gate_min=1000
default_state=UNDEFINED
eventq_index=0
leaders=
possible_states=ON CLK_GATED OFF

[board.processor.cores.core.tracer]
type=ExeTracer
eventq_index=0

[board.processor.cores.core.workload]
type=Process
cmd=/home/ubuntu/experiment-2/binary/fuzz_1692364411815553506.c.o 0 0 
cwd=/home/ubuntu/experiment-2/output/default/hangs
drivers=
egid=100
env=
errout=cerr
euid=100
eventq_index=0
executable=/home/ubuntu/experiment-2/binary/fuzz_1692364411815553506.c.o
gid=100
input=cin
kvmInSE=false
maxStackSize=67108864
output=cout
pgid=100
pid=100
ppid=0
release=5.1.0
simpoint=0
system=board
uid=100
useArchPT=false

[board.workload]
type=X86EmuLinux
eventq_index=0
remote_gdb_port=#7000
wait_for_remote_gdb=false

[root]
type=Root
children=board
eventq_index=0
full_system=false
sim_quantum=0
time_sync_enable=false
time_sync_period=100000000000
time_sync_spin_threshold=100000000

